98
 
  P      0.67415853     -1.83196983     -1.14213559
  C      2.45127416     -1.21811221     -1.62178567
  C      2.60197452     -0.18553268     -2.76151268
  C      4.09127208      0.14026327     -3.01680076
  H      2.16228500     -0.56875434     -3.68780123
  H      2.07619416      0.73697444     -2.50213402
  C      4.71616569      0.72704762     -1.73816760
  C      4.61409200     -0.30847344     -0.60347111
  H      5.76852239      0.98967831     -1.91623773
  H      4.19248571      1.64799732     -1.45441205
  C      3.12782163     -0.64837719     -0.35003861
  H      3.06074857     -1.39517871      0.45109488
  H      2.60648538      0.25085612     -0.02472980
  C      3.26303381     -2.50644368     -1.98997435
  C      4.84094386     -1.14347924     -3.41854819
  H      4.15052238      0.87809411     -3.82859133
  C      4.74208125     -2.16522134     -2.27013855
  H      4.41086709     -1.56389947     -4.33865556
  H      5.89449318     -0.91691154     -3.63366265
  H      5.25827795     -3.09211820     -2.55317142
  C      5.38102996     -1.58336464     -0.99890857
  H      3.20761377     -3.21963659     -1.15917443
  H      2.84340154     -3.01374937     -2.85755709
  H      5.34238531     -2.32214258     -0.18612763
  C     -0.36240373     -2.18775464     -2.75837737
  C      0.47582010     -3.07908197     -3.71566252
  C     -0.32880379     -3.42744172     -4.98738799
  H      1.37867848     -2.55057681     -4.03468775
  H      0.78525937     -3.99052736     -3.19278704
  C     -1.60799342     -4.19232793     -4.60899070
  C     -2.46136380     -3.30226605     -3.69107988
  H     -2.17128835     -4.46235232     -5.51364574
  H     -1.35806144     -5.12571697     -4.08879310
  C     -1.66497910     -2.96346281     -2.40967418
  H     -2.30485622     -2.34475679     -1.77285815
  H     -1.42683213     -3.88116169     -1.86708951
  C     -0.77897556     -0.90283837     -3.50411769
  C     -0.69467823     -2.12142082     -5.71959944
  H      0.30331173     -4.04997540     -5.63548283
  C     -1.55980566     -1.24328941     -4.79524847
  H      0.21899581     -1.58262928     -6.00866102
  H     -1.24109426     -2.34242301     -6.64695246
  H     -1.81320627     -0.30447912     -5.30730062
  C     -2.84575192     -2.00530971     -4.42838434
  H     -1.41636122     -0.29835380     -2.85045268
  H      0.09464753     -0.30017313     -3.75803980
  H     -3.48691623     -1.38093225     -3.79011495
  H     -3.42177088     -2.23654080     -5.33563332
  H     -3.36818534     -3.84454144     -3.39282712
  H      6.44115765     -1.35048881     -1.17147207
  C     -0.46804585     -0.56441359     -0.23634837
  C     -0.53234283      0.86213323     -0.12750223
  C     -1.69183465      1.46058724      0.44509063
  C     -2.74520778      0.70335298      0.94463466
  C     -2.64706670     -0.68072125      0.94647346
  C     -1.52857935     -1.30196358      0.39659859
  O     -1.69201230      2.83405975      0.50823292
  H     -3.62511558      1.17303226      1.36693871
  H     -3.44101097     -1.27467767      1.38182276
  O     -1.38449121     -2.65292012      0.45208828
  C     -2.45606046     -3.49183478      0.88337440
  H     -2.64956051     -3.35413855      1.95358690
  H     -2.11359706     -4.50666308      0.68029479
  H     -3.36659610     -3.28808313      0.30667681
  C     -2.81783326      3.48668915      1.07158795
  H     -2.60065094      4.55462338      1.01130954
  H     -2.96435678      3.20629073      2.12333817
  H     -3.73619619      3.27171720      0.50940480
  C      0.56781788      1.87767171     -0.38722044
  C      0.61514483      2.67687498     -1.55853865
  C     -0.41501237      2.57030540     -2.68410258
  C      1.58766190      3.67978982     -1.66374488
  H      1.61309477      4.28317614     -2.56702829
  C      2.49578815      3.95982145     -0.64164726
  C      3.51071021      5.09062657     -0.75613136
  C      2.39282949      3.20766325      0.52926764
  H      3.06239759      3.43594271      1.35435840
  C      1.44113577      2.19469687      0.69118383
  C      1.31661517      1.55041878      2.07773397
  C     -1.40898359      3.75141782     -2.63460752
  H     -0.98936904      1.65575243     -2.52127376
  C      0.20638145      2.49976469     -4.09290870
  H      0.68540366      3.44634490     -4.36877278
  H     -0.57626237      2.30744817     -4.83612036
  H      0.95741523      1.71059924     -4.18168621
  H     -1.88599162      3.82327699     -1.65592878
  H     -2.18829520      3.62457788     -3.39643032
  H     -0.89862881      4.70129232     -2.83474858
  C      4.41490799      4.95264807     -1.99417313
  H      4.15508118      5.03449062      0.13207438
  C      2.81287157      6.46524492     -0.73502842
  H      4.95089801      3.99750006     -1.99154286
  H      5.15748082      5.75915696     -2.02160996
  H      3.83342627      5.00734075     -2.92202239
  H      2.15616914      6.58607195     -1.60483473
  H      3.55109531      7.27578551     -0.75688393
  H      2.19947394      6.58464595      0.16481655
  H      0.72687883      0.63438226      1.96868943
