98
 
  P      0.31267225     -0.08728470      2.69708596
  C      1.10725495      1.16866897      3.82022690
  C      1.17216992      0.82232312      5.20655295
  C      1.72820779      1.65701611      6.14025602
  C      2.30425832      2.89073993      5.74864077
  C      2.31040307      3.23873249      4.35903476
  C      1.68303262      2.37124565      3.39132646
  H      1.75447060      1.36928942      7.18851684
 Pd      0.30397799      0.04999522      0.16026549
  O     -1.53060365      1.11539271      0.20096531
  S     -2.78420558      0.65712542     -0.56551515
  O     -2.87696991     -0.80042131     -0.61410703
  O     -2.95626995      1.39440809     -1.81271851
  C     -4.09863187      1.23210516      0.52072769
  H     -5.04964117      0.98105776      0.04365262
  H     -4.02560274      2.31548440      0.63882271
  H     -4.02617340      0.73398174      1.48873373
  N      2.09479397     -1.04943924     -0.02317995
  H      2.52837194     -1.20662402      0.88707857
  H      2.72201142     -0.43861368     -0.55315735
  C      1.87873268     -2.30640287     -0.71036482
  C      2.23445485     -3.50476283     -0.09541089
  C      1.29668434     -2.27402764     -1.99015051
  C      2.00989247     -4.71439270     -0.75430364
  H      2.68085103     -3.49302331      0.89520404
  C      1.08592459     -3.50410389     -2.63055081
  C      1.43584849     -4.71135716     -2.02531930
  H      2.27957013     -5.64931721     -0.27150414
  H      1.24458426     -5.64798080     -2.54149196
  H      0.60492590     -3.50956296     -3.60359356
  C      0.92631359     -0.98333451     -2.62008863
  C      1.07461986     -0.83775456     -4.01402284
  C      0.73069257      0.34760264     -4.65721842
  H      0.85366606      0.43573850     -5.73357935
  C      0.23098186      1.41481739     -3.91153284
  H     -0.06444795      2.33847397     -4.40322343
  C      0.08988603      1.29366945     -2.52606379
  H     -0.33006617      2.11717046     -1.96295116
  C      0.43512597      0.10929375     -1.87081094
  H      0.78706027     -0.14028283      5.52497235
  C      2.96959025      4.44312942      3.97969341
  C      2.90900748      3.75956600      6.69474352
  C      3.51761634      4.92660159      6.29243917
  H      2.88825470      3.47911610      7.74508817
  C      3.55293273      5.26477237      4.91969856
  H      3.01068882      4.71530066      2.93221937
  H      4.04460422      6.17985049      4.60213763
  H      3.97811757      5.58487642      7.02405656
  C      1.82356065      2.75228592      1.94035738
  C      2.92828114      2.15026128      1.23052844
  C      3.12835546      2.43128867     -0.15906553
  C      2.27579525      3.37030102     -0.78763757
  H      2.41537339      3.59037621     -1.84243127
  C      1.30813841      4.01724808     -0.06820967
  H      0.70933211      4.77051165     -0.56684432
  C      1.04583793      3.72981510      1.31077264
  C      3.89128190      1.31651582      1.86943145
  C      4.18773970      1.80142113     -0.86479243
  C      5.07307695      0.96249975     -0.22056947
  H      4.29877515      2.01255554     -1.92560230
  C      4.93368576      0.74267354      1.16975897
  H      3.82644071      1.16616759      2.94031455
  H      5.88837336      0.49757835     -0.76774140
  H      5.65864172      0.12548277      1.69380273
  P     -0.01510727      5.02625951      2.13060512
  C     -1.04267134      4.29014504      3.48128899
  C     -2.08965124      3.37682304      3.27344086
  H     -2.23189421      2.92785495      2.29614804
  C     -2.96200016      3.04943144      4.31095414
  H     -3.77315205      2.35110940      4.12834113
  C     -2.79126204      3.61097268      5.57941917
  H     -3.47774020      3.35952602      6.38418297
  C     -1.74136989      4.50075789      5.80709735
  H     -1.60116561      4.94192755      6.79064148
  C     -0.88058521      4.84426619      4.76248733
  H     -0.08284865      5.56103051      4.93770688
  C     -1.30447153      5.38892550      0.85353982
  C     -1.88065844      4.43453142     -0.00383470
  H     -1.55710409      3.39886942      0.03179818
  C     -2.86711023      4.80228582     -0.92069598
  H     -3.28249400      4.04175361     -1.57655304
  C     -3.30234298      6.12931565     -0.98553575
  H     -4.07175501      6.41568310     -1.69826643
  C     -2.74068815      7.08728617     -0.14039447
  H     -3.06943948      8.12221478     -0.19181945
  C     -1.74138788      6.72097776      0.76495836
  H     -1.29388945      7.47652602      1.40677120
  C      1.19961202     -1.64673199      3.21558384
  C      2.57453207     -1.63740626      3.51358152
  H      3.11773949     -0.70022242      3.53566212
  C      3.25999739     -2.81728475      3.81601735
  H      4.31950651     -2.77422009      4.05510672
  C      2.58578677     -4.03863997      3.82541778
  H      3.11446991     -4.95671404      4.06666460
  C      1.22289597     -4.06637293      3.52309790
  H      0.68243242     -5.00909797      3.52602634
  C      0.53977999     -2.88872753      3.21802464
  C     -1.38046621     -0.41989150      3.36169044
