98
 
  P     -0.14375295     -3.49730958     -1.66742962
 Pd      1.19892708     -3.88475847      0.45599479
  O      2.73711307     -4.81601795     -0.66344503
  S      3.15279449     -6.24978281     -0.27806334
  O      1.98090662     -7.06615891      0.03678589
  O      4.26806493     -6.27846009      0.65514349
  C      3.80138229     -6.84667871     -1.84770375
  H      4.15306312     -7.86949020     -1.69159429
  H      4.63628191     -6.21568075     -2.16059172
  H      3.01443110     -6.83870935     -2.60445745
  N     -0.20134516     -2.99580490      1.75813973
  H     -0.98963393     -2.58483464      1.25663550
  H      0.32314299     -2.23788414      2.19907273
  C     -0.64417624     -3.95608434      2.74963644
  C     -1.99703495     -4.26478277      2.87213640
  C      0.33055372     -4.56346955      3.56259047
  C     -2.41060044     -5.21139093      3.81162273
  H     -2.72543573     -3.76042536      2.24236925
  C     -0.11337003     -5.50381215      4.50284986
  C     -1.46428030     -5.83025753      4.62744958
  H     -3.46439180     -5.45906916      3.90073366
  H     -1.77310492     -6.57750755      5.35288605
  H      0.62224885     -6.01113432      5.11934065
  C      1.76082011     -4.20057039      3.41367663
  C      2.57847328     -4.13416825      4.55928500
  H      2.14305350     -4.33546683      5.53498181
  C      3.92251082     -3.78545495      4.46386874
  H      4.53433730     -3.73779151      5.36082622
  C      4.47272043     -3.49195735      3.21574480
  H      5.52515111     -3.23393980      3.12719543
  C      3.67560539     -3.55085529      2.06945240
  H      4.12265965     -3.36706933      1.09854151
  C      2.32672706     -3.90331329      2.15408060
  C      0.97168493     -2.70201839     -3.01260014
  C     -1.09081193     -5.01166137     -2.38175005
  C     -1.36681635     -2.17371290     -1.20008103
  C     -2.58538759     -2.36971073     -0.44146086
  C     -1.06029415     -0.76649643     -1.05514139
  C     -2.02980093     -0.14785161     -0.21113265
  C     -2.97960502     -1.13670745      0.16340301
 Fe     -2.93557295     -0.94653177     -1.88064575
  H     -3.86206919     -0.97995969      0.76955723
  H     -3.11311315     -3.29981601     -0.31688419
  C     -3.06805632      0.04961322     -3.69714714
  C     -3.40085148     -1.32512078     -3.87094434
  C     -3.98084873      0.64250561     -2.75887531
  C     -4.85199725     -0.42517412     -2.33034522
  C     -4.51033490     -1.62171260     -3.02856735
  H     -5.63757345     -0.32949660     -1.59325292
  H     -2.06449163      0.89669830      0.06088179
  H     -0.21590201     -0.25103306     -1.48397227
  P     -4.25265523      2.38403328     -2.18595897
  H     -4.99595557     -2.58253078     -2.91961710
  H     -2.26593214      0.55653277     -4.21222113
  H     -2.88917756     -2.01278024     -4.52843776
  C     -5.76675433      2.85359837     -3.29973889
  C     -2.71331400      3.38104217     -2.77132908
  C     -0.09880300     -6.19812904     -2.44392607
  C     -1.72847694     -4.80407879     -3.76826621
  C     -2.20945748     -5.43758000     -1.40057285
  C      1.80138813     -3.77012935     -3.75971240
  C      2.00669901     -1.81368764     -2.27059749
  C      0.21046703     -1.85980149     -4.05761607
  H      2.36832049     -4.39105736     -3.06272787
  H      2.51595816     -3.24820891     -4.41000472
  H      1.18759362     -4.40751988     -4.40122230
  H      2.67620480     -2.42781844     -1.66250315
  H      1.55556279     -1.06138686     -1.62078991
  H      2.61297256     -1.28464506     -3.01802790
  H     -0.38564562     -2.48512999     -4.72909925
  H      0.94126808     -1.32213413     -4.67604869
  H     -0.45926639     -1.12842508     -3.60497181
  H      0.72588112     -6.02274354     -3.13533000
  H     -0.64543243     -7.07809917     -2.80828943
  H      0.32296496     -6.44580691     -1.46585656
  H     -0.98329947     -4.62736310     -4.54892693
  H     -2.44323644     -3.97688354     -3.77396139
  H     -2.27538873     -5.71502028     -4.04604634
  H     -1.87786117     -5.44130756     -0.35653611
  H     -2.51233625     -6.46288894     -1.64580006
  H     -3.09997994     -4.81172978     -1.49929636
  C     -1.46162968      2.70760043     -2.16199835
  C     -2.80975757      4.78117922     -2.11771221
  C     -2.50919395      3.55211995     -4.28836834
  C     -7.00364704      2.24642658     -2.59371038
  C     -5.73028688      2.32662324     -4.74709312
  C     -5.96166311      4.38334319     -3.31111184
  H     -2.95604055      4.70453138     -1.03442318
  H     -3.62304023      5.38571768     -2.52510108
  H     -1.87445507      5.33021794     -2.29217319
  H     -1.50655514      2.70877221     -1.06728019
  H     -0.56955743      3.27927956     -2.45049981
  H     -1.32548371      1.67584499     -2.49252343
  H     -5.95407657      4.80484900     -2.29942332
  H     -6.93659732      4.61676350     -3.75943057
  H     -5.20304044      4.89801672     -3.90709218
  H     -6.97488946      1.15334825     -2.57710530
  H     -7.91083669      2.53791726     -3.13991589
