98
 
  P      0.34773261     -3.23375484     -1.14304710
 Pd      1.61218484     -4.47944150      0.67226332
  O      2.57057691     -5.76509862     -0.69009586
  S      1.93512496     -7.10719869     -1.07403886
  O      1.69266543     -7.16700150     -2.51405023
  O      0.81583628     -7.45002245     -0.19822477
  C      3.26118837     -8.26366195     -0.71940169
  H      2.91041659     -9.27175555     -0.95293682
  H      3.52138046     -8.18922175      0.33843177
  H      4.12575498     -8.01792303     -1.34008716
  N      0.78361888     -3.34568212      2.24298021
  H      0.17374674     -2.61635347      1.87183292
  H      1.58738770     -2.89307820      2.68140628
  C      0.07939764     -4.18390468      3.19431468
  C     -1.25700934     -3.91947951      3.48651642
  C      0.77099549     -5.25395021      3.79297618
  C     -1.94648004     -4.73146008      4.38816753
  H     -1.75357841     -3.07753933      3.01119563
  C      0.05465853     -6.04790551      4.70096212
  C     -1.28503143     -5.79701196      4.99728915
  H     -2.99081786     -4.52951437      4.60790429
  H     -1.81307274     -6.44403797      5.69188018
  H      0.55177467     -6.90063183      5.15290835
  C      2.19414495     -5.52237301      3.46610552
  C      3.04912075     -6.02264548      4.46905134
  H      2.66170248     -6.17106360      5.47388186
  C      4.38735202     -6.30120509      4.20466372
  H      5.02798279     -6.68183521      4.99588882
  C      4.89913128     -6.07712578      2.92557902
  H      5.94257975     -6.29354424      2.70720581
  C      4.06629408     -5.57299358      1.92194633
  H      4.46051316     -5.41962904      0.92192117
  C      2.71886164     -5.29183364      2.17518465
  C      1.44508023     -2.60839449     -2.53319756
  C      2.27170689     -3.74573625     -3.17962230
  C      3.30191390     -3.17672148     -4.16696709
  C      2.64365925     -2.29699341     -5.23691916
  C      1.83515218     -1.16426009     -4.58950548
  C      0.79178412     -1.70055142     -3.59181070
  C     -1.16805665     -4.12879744     -1.83303203
  C     -1.71813121     -5.12922259     -0.77986603
  C     -3.05227457     -5.73752569     -1.24078802
  C     -2.89329265     -6.45090802     -2.58915481
  C     -2.29031925     -5.51036914     -3.63975520
  C     -0.96355227     -4.88727503     -3.16697947
  C     -0.41255907     -1.74809868     -0.33266169
  C     -1.70668549     -1.86747045      0.30706652
  C      0.15724384     -0.48029233      0.13111814
  C     -0.78388049      0.10057321      1.04505259
  C     -1.91965865     -0.74744005      1.16034701
 Fe     -1.68088552     -0.14673421     -0.77846609
  C     -2.10194430      1.75974415     -1.44567056
  C     -1.50466932      0.99880014     -2.49453635
  C     -3.30146415      1.09523787     -1.05188901
  C     -3.44475546     -0.07650127     -1.85683602
  C     -2.33582193     -0.13360520     -2.75060434
  C      1.55592593      0.06903140     -0.14682609
  H      1.61397092     -4.44012025     -3.71017456
  H      2.76971601     -4.33758187     -2.40872502
  H      3.84921622     -4.00426703     -4.63516806
  H      4.04722002     -2.58188935     -3.61600366
  H      1.97357662     -2.91508924     -5.85280702
  H      3.39916837     -1.88102249     -5.91588811
  H     -1.84366455     -4.65809380      0.20181648
  H     -0.98621449     -5.93251410     -0.63697834
  H     -3.81061448     -4.94316325     -1.33179743
  H     -3.41778930     -6.43719146     -0.47866811
  H     -3.86061753     -6.83761764     -2.93577902
  H     -2.23152011     -7.31789777     -2.45839998
  H     -2.12081548     -6.04923339     -4.58058318
  H     -3.00743237     -4.70491780     -3.86310890
  H     -0.21587901     -5.67830067     -3.03787658
  H     -0.59349643     -4.21645481     -3.94766407
  P      1.66037319      1.98159394      0.07395828
  H      1.72328445     -0.02002890     -1.22545820
  C      2.62207878     -0.81045803      0.54575786
  H      2.56787993     -0.73793213      1.63530219
  H      3.63689040     -0.54163842      0.24354549
  H      2.47997499     -1.86800697      0.29057451
  C      2.88985051      2.43724164     -1.34391198
  C      2.49082430      2.37089258      1.77408310
  C      2.04117034      2.38967040     -2.63767133
  H      1.68317507      1.38055269     -2.86778083
  H      2.65207134      2.71455061     -3.49034843
  H      1.17114167      3.05219335     -2.57161812
  C      4.12728568      1.54029220     -1.54492563
  C      3.36126443      3.89727919     -1.17726184
  H      2.52611663      4.58164060     -0.99028807
  H      3.85666613      4.22384760     -2.10125778
  H      4.08633110      4.00798254     -0.36665562
  H      3.85628923      0.50417699     -1.77185289
  H      4.79201183      1.53813564     -0.67674648
  H      4.70845538      1.91150999     -2.40065717
  C      1.65961128      1.68118371      2.88266725
  C      2.31464664      3.89291423      2.01598842
  C      3.97917449      2.01668885      1.95826921
  H      1.27196711      4.20238333      1.88131422
  H      2.93408794      4.50359992      1.35650528
