98
 
  P      1.72274798     -1.24907325     -0.63240433
  C      1.04142252      0.44351152      0.06623404
  C      0.47086545      1.63301184     -0.52644076
  C      0.34521299      2.82444921      0.24411878
  C      0.75692259      2.84296253      1.57620847
  C      1.20559560      1.69819851      2.20231145
  C      1.30919076      0.51461124      1.46990769
  C     -0.25095408      4.13159875     -0.25619015
  H      0.68022699      3.76709208      2.14474972
  H      1.46604994      1.72523710      3.25278493
  O      1.68016951     -0.64062448      2.10143892
  C      2.11371823     -0.61178158      3.45477374
  H      2.98686178      0.03935689      3.58191348
  H      2.38436446     -1.64084246      3.69358270
  H      1.31244532     -0.28178388      4.12883221
  C     -0.17348576      1.75068701     -1.90078068
  C     -1.56002379      1.43022167     -2.01956735
  C     -2.39925379      0.88194378     -0.85244099
  C     -2.21829819      1.67258986     -3.22949405
  H     -3.26988413      1.41870447     -3.31154514
  C     -1.57909262      2.23661432     -4.33613749
  C     -2.31857363      2.49733460     -5.64112777
  C     -0.24248506      2.59054017     -4.18591215
  H      0.26458865      3.06237495     -5.02370677
  C      0.47113683      2.38755355     -2.99501823
  C      1.89774700      2.94951635     -2.95232425
  C     -3.04330858      2.01453611     -0.02339940
  H     -1.72526373      0.33408834     -0.18393100
  C     -3.51573404     -0.08916490     -1.28606094
  H     -4.31810022      0.42576843     -1.82561469
  H     -3.97816773     -0.53404773     -0.39723102
  H     -3.14689118     -0.89855604     -1.92308874
  H     -2.29610013      2.63101292      0.47757490
  H     -3.69886085      1.59180832      0.74786248
  H     -3.65178547      2.66449849     -0.66338823
  C     -2.90955098      1.20718473     -6.24040186
  H     -1.58136049      2.88580664     -6.35725884
  C     -3.40624850      3.57475858     -5.46631724
  H     -2.13214344      0.45185397     -6.39893451
  H     -3.38770679      1.41373331     -7.20514245
  H     -3.66881498      0.77230962     -5.57983626
  H     -4.18190292      3.24304844     -4.76553921
  H     -3.89320791      3.79300772     -6.42431327
  H     -2.98263691      4.50783769     -5.07844909
  H      2.35326377      2.64378775     -2.00858756
  C      1.90993822      4.49445746     -2.99791192
  C      2.78708506      2.44032716     -4.10720693
  H      2.77258555      1.35339394     -4.20492402
  H      3.82457686      2.75360707     -3.94316854
  H      2.47064277      2.86213123     -5.06817109
  H      1.34273531      4.94324606     -2.18131489
  H      1.48555172      4.86161944     -3.93982148
  H      2.94208039      4.85931092     -2.93502589
 Pd      1.28208596     -3.24116437      1.02351689
  O      3.15758632     -4.11002917      0.62536218
  S      3.29558416     -5.42274564     -0.16439889
  N     -0.66685490     -2.61207173      1.57900804
  H     -0.93381970     -1.75444798      1.09850060
  H     -0.56704076     -2.39169184      2.57081713
  C     -1.64608989     -3.66234996      1.37422890
  C     -2.76861144     -3.42431906      0.58480599
  C     -1.42350088     -4.91444153      1.97770172
  C     -3.69623015     -4.44336408      0.36219033
  H     -2.91959646     -2.44442783      0.14168228
  C     -2.37491172     -5.91767144      1.74417629
  C     -3.49634872     -5.69344928      0.94531076
  H     -4.56357665     -4.25590181     -0.26410954
  H     -4.20244845     -6.49963605      0.76850614
  H     -2.20721857     -6.90235174      2.16901240
  C     -0.23192805     -5.14758213      2.82996017
  C     -0.35107389     -5.97099444      3.96766427
  H     -1.31811939     -6.40338120      4.21221101
  C      0.73696888     -6.21419379      4.80144594
  H      0.61920571     -6.84887917      5.67577578
  C      1.96959292     -5.62636388      4.51347608
  H      2.82751697     -5.80948228      5.15683399
  C      2.10206776     -4.80185814      3.39147131
  H      3.06851976     -4.36597537      3.15552433
  C      1.01750686     -4.55633374      2.54048495
  C      3.62737989     -0.84940062     -0.75627844
  C      4.25555618     -0.95320036      0.65162549
  C      3.91044611      0.55750259     -1.30012150
  H      3.51691329      0.69317518     -2.30757157
  H      3.50047252      1.33798244     -0.65229111
  C      4.34799243     -1.88000842     -1.65104733
  H      4.04921872     -1.80985925     -2.69959237
  H      4.21500772     -2.90772456     -1.31236778
  C      1.03350617     -1.79742134     -2.34522953
  C     -0.50178397     -1.81476636     -2.24582442
  C      1.47220282     -3.27371507     -2.52294242
  H      2.54800401     -3.41057034     -2.61415690
  H      1.12935867     -3.91136668     -1.70273307
  C      1.44325537     -0.99641218     -3.59017739
  H      2.52629131     -0.97692915     -3.73402023
  H      1.07509449      0.02830537     -3.55745067
  H      4.99811070      0.70514689     -1.34966895
  H      5.42293066     -1.65724825     -1.61245737
  H      1.01156728     -3.64793961     -3.44701996
