98
 
  P      0.63218530     -2.27991954      0.36071300
  C     -0.70319500     -1.74365178     -0.82250510
  C     -0.82829621     -0.59867380     -1.65131054
  C     -1.99275562     -0.45996733     -2.43080336
  C     -3.01983819     -1.39693714     -2.41906312
  C     -2.89022082     -2.53456300     -1.62630691
  C     -1.74132658     -2.69996264     -0.86157706
  H     -2.07480996      0.41477591     -3.06995010
  H     -3.89948978     -1.24882385     -3.04018710
  H     -3.65787266     -3.30333127     -1.62299287
  H     -1.62429916     -3.62147606     -0.29980370
  C      0.16469106      0.51220192     -1.85386361
  C      1.21646295      0.37270332     -2.78824728
  O      1.36055752     -0.87088066     -3.32605128
  C      2.04603092      1.45807730     -3.10999905
  H      2.85264421      1.34642543     -3.82368777
  C      1.81440031      2.69486046     -2.51559496
  H      2.46124331      3.53378374     -2.75869238
  C      0.76561304      2.87706967     -1.61943972
  H      0.60154092      3.84867268     -1.17068607
  C     -0.06847212      1.79273215     -1.30935012
 Pd      1.10061598     -4.79396154      0.27398543
 Cl      0.75591780     -4.64217798     -2.07674024
  N      1.48178541     -5.24422814      2.35090538
  H      1.50312011     -4.43079993      2.96164628
  H      2.42774459     -5.62834029      2.30763114
  C      0.55426879     -6.23661005      2.85744562
  C     -0.19176481     -5.97756396      4.00615747
  C      0.43055704     -7.45096205      2.15753111
  C     -1.11588796     -6.91696600      4.46640685
  H     -0.05317284     -5.04218605      4.54261601
  C     -0.50562554     -8.37694930      2.64253001
  C     -1.27631113     -8.11726060      3.77598894
  H     -1.70231381     -6.70614569      5.35603332
  H     -2.00252994     -8.85091451      4.11440554
  H     -0.64402946     -9.30817525      2.10168528
  C      1.29716750     -7.74388733      0.98902846
  C      1.77665894     -9.06162685      0.83212102
  H      1.50497198     -9.81617013      1.56609013
  C      2.62080929     -9.40250899     -0.21879923
  H      2.98340880    -10.42268429     -0.31556960
  C      3.00590339     -8.42072488     -1.13262418
  H      3.66405905     -8.67143977     -1.96152356
  C      2.53981656     -7.11142472     -0.99111572
  H      2.81683423     -6.36705254     -1.72910450
  C      1.68610518     -6.75000886      0.06008554
  O     -1.14776479      1.90632752     -0.47646520
  C     -1.80857232      3.18199811     -0.32946850
  C     -3.30517831      2.88779514     -0.27222636
  H     -1.59666141      3.78237062     -1.22323715
  C     -1.30754667      3.90988839      0.91852617
  H     -3.62067138      2.33880195     -1.16427558
  H     -3.87492256      3.82208718     -0.21477500
  H     -3.54545390      2.28032450      0.60631616
  H     -1.52958069      3.32221339      1.81559859
  H     -1.80249317      4.88325725      1.01577425
  H     -0.22689975      4.07824381      0.88336793
  C      2.13481242     -1.07792412     -4.52981067
  C      2.36887730     -2.57944747     -4.62248339
  H      3.10392531     -0.57317800     -4.42048850
  C      1.38492854     -0.51894187     -5.73852780
  H      2.93480694     -2.94298433     -3.76089692
  H      2.92696750     -2.81200823     -5.53657871
  H      1.41757918     -3.11828119     -4.63541772
  H      0.41970026     -1.02588350     -5.84372852
  H      1.96508682     -0.68388900     -6.65343161
  H      1.20253152      0.55563924     -5.63829448
  C      0.14831937     -1.67435557      2.09196368
  C     -0.82402725     -2.63786717      2.83059254
  C     -0.28477698     -0.20233638      2.31505326
  C     -1.78995220      0.05548909      2.13988807
  H     -0.01022508      0.06042769      3.34930414
  H      0.27741490      0.47572594      1.66928217
  C     -2.32018569     -2.33918832      2.65640940
  H     -0.59434367     -2.56433650      3.90614781
  H     -0.63105522     -3.67324214      2.53448144
  C     -2.64174563     -0.88253312      3.00065562
  H     -2.06390371     -0.06268428      1.08646531
  H     -1.99708089      1.10115311      2.39909189
  H     -3.70906072     -0.67987028      2.84383525
  H     -2.43972266     -0.69871218      4.06729555
  H     -2.62615636     -2.53554494      1.62267451
  H     -2.89371677     -3.02767973      3.29052963
  H      1.12163883     -1.79692345      2.58929031
  C      2.26800517     -1.46836539     -0.13630722
  C      3.47674593     -2.41302183      0.10320518
  C      2.66015055     -0.04216271      0.33124669
  C      3.27906020      0.03683658      1.73837177
  H      3.41099698      0.31871805     -0.38675525
  H      1.82524884      0.65450722      0.24910381
  C      4.02624729     -2.36956745      1.53568362
  H      4.27881786     -2.08671743     -0.57618984
  H      3.22085810     -3.43730123     -0.18905829
  C      4.44569832     -0.94460097      1.92044287
  H      2.51874014     -0.16203008      2.50373161
  H      3.62205792      1.06467459      1.91608496
  H      4.81549724     -0.91179731      2.95368709
  H      5.28329676     -0.63769646      1.27686243
