98
 
  P     -0.13255235     -2.65218959      0.72643107
  C     -1.22382539     -2.09678823     -0.75265230
  C     -1.28086747     -0.93093617     -1.58043188
  C     -2.33831901     -0.81792901     -2.52929238
  C     -3.26998670     -1.82910776     -2.72571141
  C     -3.17738544     -2.99662575     -1.98103514
  C     -2.18147748     -3.13180747     -1.01866681
  O     -2.36819052      0.34651558     -3.26045183
  H     -4.05658679     -1.73093432     -3.46367937
  H     -3.88398674     -3.79806693     -2.15474302
  O     -2.08879543     -4.26102128     -0.26563954
  C     -2.95542458     -5.36647311     -0.51219015
  H     -4.00259371     -5.09186995     -0.32702188
  H     -2.64380478     -6.13461128      0.19573605
  H     -2.81478850     -5.75026229     -1.52503095
  C     -3.39050630      0.51277503     -4.22799929
  H     -3.22873951      1.50162089     -4.66100394
  H     -4.39003137      0.47516703     -3.77415776
  H     -3.32575183     -0.24347689     -5.02200429
  C     -0.28400021      0.21205471     -1.69453221
  C      0.77302016      0.10102329     -2.64815816
  C      0.95331234     -1.12254493     -3.55825404
  C      1.64519162      1.17883399     -2.82797514
  H      2.45853017      1.07449920     -3.53977575
  C      1.50509038      2.38543677     -2.13877858
  C      2.48279787      3.53555174     -2.33516706
  C      0.42091963      2.50343059     -1.27453563
  H      0.26475890      3.44977491     -0.76313633
  C     -0.48998783      1.46018819     -1.05476197
  C     -1.71375188      1.77846552     -0.19496153
  C      0.22093593     -0.90609460     -4.90160025
  H      0.50453073     -1.98736479     -3.06163439
  C      2.42252884     -1.48471472     -3.85852761
  H      2.89451559     -0.75675504     -4.52922388
  H      2.46354996     -2.45630467     -4.36342128
  H      3.03031672     -1.55439004     -2.95329356
  H     -0.83905766     -0.69511790     -4.75651737
  H      0.31851588     -1.79599655     -5.53479223
  H      0.65997918     -0.05833025     -5.44161560
  C      3.89572943      3.16664151     -1.84283648
  H      2.12706151      4.37149705     -1.71695313
  C      2.51712232      4.02239308     -3.79624421
  H      3.87878890      2.85673157     -0.79203644
  H      4.57415919      4.02309605     -1.93768145
  H      4.31663263      2.34013372     -2.42768374
  H      2.87377932      3.23417363     -4.46966984
  H      3.19169541      4.88053615     -3.90197682
  H      1.52057329      4.32549589     -4.13587592
  H     -2.21643013      0.83719456      0.03637019
  C     -2.72024174      2.65706193     -0.96967012
  C     -1.36535830      2.47868745      1.13474053
  H     -0.56296266      1.97247792      1.67959661
  H     -2.24806283      2.51728973      1.78384447
  H     -1.04374296      3.51373973      0.96895684
  H     -3.01431925      2.18201222     -1.90672003
  H     -2.28140936      3.63400391     -1.20660460
  H     -3.61880259      2.83228386     -0.36447238
 Pd      0.67397149     -5.14069981      0.39184859
  O      0.86242880     -4.70901155     -1.67164769
  S      0.44917411     -5.73797806     -2.73819228
  O     -0.68539860     -6.55086096     -2.29823435
  O      1.59834129     -6.43234318     -3.30261452
  N      0.43172886     -5.84859232      2.38642970
  H      0.08608293     -5.14211403      3.03168204
  H      1.37835296     -6.10354839      2.67565525
  C     -0.43165602     -7.01486370      2.39654112
  C     -1.59124871     -7.02514606      3.16882146
  C     -0.05915776     -8.11806621      1.60661655
  C     -2.42871223     -8.14303311      3.15139038
  H     -1.83940670     -6.16713566      3.78926767
  C     -0.91419725     -9.22918354      1.61224492
  C     -2.08729278     -9.24520659      2.36828826
  H     -3.33695435     -8.14574604      3.74677716
  H     -2.73643654    -10.11550205      2.33659031
  H     -0.66460703    -10.07911675      0.98478687
  C      1.20037181     -8.08424633      0.82632437
  C      1.97474553     -9.25588963      0.71672367
  H      1.64003994    -10.16159314      1.21635093
  C      3.17296874     -9.26173104      0.00862992
  H      3.75579773    -10.17620503     -0.06236545
  C      3.62023247     -8.08828257     -0.59892684
  H      4.54600090     -8.08298742     -1.16854441
  C      2.86638512     -6.91555284     -0.49694679
  H      3.20029497     -6.02249147     -1.01329770
  C      1.65997498     -6.90090075      0.20799081
  C     -1.27838176     -2.22864062      2.25855785
  C     -2.43564323     -3.24813946      2.35766374
  C     -1.91427385     -0.83433628      2.17066143
  C     -0.48589767     -2.30898038      3.58072966
  H      0.25734371     -1.51605876      3.67974738
  H      0.03192331     -3.26476314      3.71529943
  C      1.54506859     -1.73206314      0.95042022
  C      2.30715402     -1.86552275     -0.38139543
  C      2.37000063     -2.55197373      1.97987840
  H      1.97062258     -2.52134013      2.99384589
  H      2.46279873     -3.59882535      1.66850419
  C      1.52793628     -0.25939028      1.39095600
  H      1.07863711     -0.11962491      2.37923479
