21
 
  N      1.10547882      0.12917711      0.50845442
  C      2.49223344      0.16346592      0.02602463
  C      3.40156616      1.22762895      0.71928693
  C      3.99655337      0.47409577      1.88965572
  C      4.61418106      0.96596297      3.03824148
  C      5.11236947      0.06395646      3.98358255
  C      4.99177317     -1.31391142      3.77906606
  C      4.37030432     -1.80762697      2.62788217
  C      3.87275837     -0.90869721      1.68575390
  C      3.18076023     -1.18472202      0.36717498
  H      0.67077575      1.04027589      0.36311969
  H      1.10568723     -0.02099559      1.51842886
  H      2.44894934      0.32786554     -1.05582051
  H      2.83661476      2.12208809      1.01106906
  H      4.19663872      1.56326984      0.03587784
  H      4.70733605      2.03735107      3.20246797
  H      5.59238477      0.43615508      4.88504109
  H      5.37894511     -2.00605023      4.52254247
  H      4.27449096     -2.88034964      2.47502980
  H      2.44932527     -1.99896790      0.40723830
  H      3.91757363     -1.44698169     -0.40570743
