23
 
  C      5.76666117     -0.44769108      1.58964549
  C      4.53551255     -1.15987185      1.05143116
  O      4.74576217     -1.58885195     -0.31691349
  C      4.47920263     -0.68476312     -1.27838330
  O      3.99092092      0.40700457     -1.09179907
  C      4.88278890     -1.22186726     -2.63876725
  C      6.38191974     -1.06704576     -2.86026782
  O      7.16435539     -0.61896718     -2.05232717
  O      6.71291877     -1.50460266     -4.09164676
  C      8.11487276     -1.41917540     -4.45561422
  C      8.45615383     -0.04909119     -5.02037367
  H      5.60989127     -0.17971236      2.64103784
  H      5.96110302      0.46751067      1.02371307
  H      6.64896622     -1.09158206      1.52185057
  H      3.65275321     -0.51692396      1.08569462
  H      4.33321203     -2.08478334      1.59727323
  H      4.34741892     -0.66993270     -3.41591463
  H      4.62352362     -2.28182305     -2.73148029
  H      8.24539189     -2.20627790     -5.20208351
  H      8.71893031     -1.64906945     -3.57465975
  H      7.81503036      0.19121411     -5.87485498
  H      9.49867721     -0.03661275     -5.35854443
  H      8.33452311      0.72479568     -4.25728565
