13
 
  S      1.00955931     -0.11872612      0.11643979
  C      2.78880596     -0.02204241     -0.05005672
  C      3.47842439      1.19496977     -0.11498957
  C      4.86776840      1.20338996     -0.24120109
  C      5.58197889      0.00612899     -0.29932253
  C      4.89277343     -1.20621090     -0.23197466
  C      3.50426895     -1.22551756     -0.10945668
  H      0.76706490      1.20410126      0.02920456
  H      2.93584292      2.13534657     -0.06629350
  H      5.39110569      2.15464969     -0.29276723
  H      6.66373015      0.01764657     -0.39673993
  H      5.43669498     -2.14601834     -0.27794197
  H      2.97635202     -2.17440748     -0.06250047
