42
 
  C      1.04855748      0.37057665     -0.03118623
  C      2.42581844     -0.24968121     -0.26187734
  C      2.80422320     -1.43486503      0.70902236
  C      2.14882962     -1.32539009      2.09248261
  C      2.59250201     -2.83623217      0.13778662
  O      4.23127702     -1.23058925      0.90710022
  C      2.60418537     -0.59795048     -1.74614939
  O      3.43602267      0.74791493      0.05611312
  B      4.50285856      0.09004239      0.62442553
  C      5.85738390      0.75317656      0.91490839
  C      6.96694100      0.18261809      1.53001991
  N      7.93393947      1.12587118      1.59895894
  C      9.30095049      0.98255265      2.08739070
  C     10.27435749      0.46160240      1.04425446
  C     10.41692104      1.11480048     -0.18741256
  C     11.32623225      0.64302895     -1.13246582
  C     12.10760646     -0.48301531     -0.85840093
  C     11.97214478     -1.13652303      0.36594550
  C     11.05683285     -0.66608134      1.31049011
  N      7.53795973      2.30717817      1.05005531
  C      6.29381546      2.07909387      0.64234225
  H      0.25397888     -0.36380250     -0.20696963
  H      0.89989760      1.20254202     -0.72692991
  H      0.94629665      0.75910094      0.98469197
  H      1.07545432     -1.53949972      2.05179258
  H      2.28816183     -0.32779923      2.52056155
  H      2.61886982     -2.05002054      2.76460436
  H      1.53277818     -3.01517654     -0.07795725
  H      2.91928739     -3.58285586      0.86877385
  H      3.16503232     -2.99038543     -0.77978503
  H      1.83689163     -1.29717874     -2.09532566
  H      3.58812890     -1.03760250     -1.93685255
  H      2.52772087      0.32048966     -2.33613198
  H      7.12252865     -0.81569773      1.91557155
  H      9.28170659      0.31366600      2.95350510
  H      9.59628012      1.97593174      2.43765991
  H      9.80514586      1.98714769     -0.40109688
  H     11.42668713      1.15611736     -2.08537959
  H     12.81658845     -0.84825479     -1.59677571
  H     12.57251764     -2.01539705      0.58630403
  H     10.95309149     -1.18026297      2.26402608
  H      5.73307639      2.87614980      0.17062943
