98
 
  P     -0.15851773     -2.07211349      0.15605481
  C      1.65019099     -1.48539494     -0.15391313
  C      1.97753862     -0.38409453     -1.18939990
  C      3.50414860     -0.14519803     -1.28202117
  H      1.59671023     -0.66898407     -2.17835073
  H      1.48499345      0.55203259     -0.91360845
  C      4.03020299      0.30106042      0.11752104
  C      3.71707255     -0.83227588      1.05635560
  H      5.10978423      0.49800755      0.06364331
  H      3.52865217      1.22925888      0.41692331
  C      2.24046127     -1.05912273      1.24169427
  H      2.04360223     -1.84940617      1.97833599
  H      1.75122802     -0.15093990      1.58834373
  C      2.42177586     -2.79197816     -0.54185175
  C      4.21874342     -1.44694016     -1.69357617
  H      3.70073675      0.64256656     -2.02322531
  C      3.94279948     -2.54590184     -0.64796235
  H      3.86662898     -1.77482091     -2.68240697
  H      5.30053916     -1.27422983     -1.78365993
  H      4.43271649     -3.48245222     -0.95017757
  C      4.48190757     -2.08652459      0.73814869
  H      2.22240488     -3.56752603      0.20857303
  H      2.07388314     -3.18621416     -1.49778452
  H      4.30895890     -2.87376220      1.48380173
  C     -1.11533137     -2.32292779     -1.53049065
  C     -0.23523477     -3.13745178     -2.51344254
  C     -1.00377610     -3.45609869     -3.81538907
  H      0.66361851     -2.57220918     -2.77923751
  H      0.09083697     -4.07171908     -2.03866165
  C     -2.25599854     -4.28855037     -3.49237933
  C     -3.15615011     -3.48429466     -2.53813227
  H     -2.79975851     -4.53239745     -4.41590177
  H     -1.96853537     -5.24282966     -3.02965723
  C     -2.38589049     -3.17036005     -1.23551559
  H     -3.05144734     -2.63164592     -0.55422988
  H     -2.10214228     -4.10082943     -0.73017900
  C     -1.56649308     -1.03071830     -2.23179843
  C     -1.41832701     -2.13668861     -4.49537451
  H     -0.34071155     -4.02373485     -4.48251609
  C     -2.32647402     -1.33846278     -3.54181002
  H     -0.52691752     -1.54694211     -4.75249255
  H     -1.94519475     -2.34275469     -5.43756508
  H     -2.61846507     -0.39033625     -4.01422785
  C     -3.58295041     -2.16784948     -3.21793594
  H     -2.22493724     -0.47121496     -1.55975993
  H     -0.70204414     -0.39664485     -2.44547154
  H     -4.25135044     -1.59961594     -2.55632440
  H     -4.14583981     -2.38048368     -4.13772515
  H     -4.04678964     -4.07466951     -2.28335619
  H      5.56390622     -1.90577838      0.68122920
  C     -1.30069427     -0.79490123      1.03440588
  C     -1.37798556      0.63049607      1.14529064
  C     -2.47437911      1.22640914      1.83466010
  C     -3.48593975      0.46654392      2.41431241
  C     -3.38708119     -0.91528897      2.37600060
  C     -2.31260015     -1.52034531      1.73359233
  O     -2.45176718      2.59371757      1.91546906
  H     -4.32686996      0.93280227      2.91251539
  H     -4.14530759     -1.54051308      2.83548454
  O     -2.23802744     -2.90158417      1.74820937
  C     -2.67515020     -3.57342271      2.85160478
  H     -2.51593270     -3.10096666      3.81868341
  H     -2.58416096     -4.64630251      2.73498367
  C     -3.40172063      3.24410469      2.74567464
  H     -3.12878625      4.30071676      2.73292486
  H     -3.35669435      2.86790255      3.77550986
  H     -4.42426429      3.13200786      2.36109119
  C     -0.30263652      1.64585588      0.81923703
  C     -0.28007675      2.46214433     -0.33603067
  C     -1.35077703      2.39092475     -1.42081348
  C      0.70978892      3.44661333     -0.45529031
  H      0.72424560      4.05724623     -1.35362839
  C      1.65644139      3.70405656      0.54073991
  C      2.70735721      4.79464702      0.37657840
  C      1.57441169      2.95716940      1.71252712
  H      2.26228333      3.15141460      2.53116172
  C      0.60017437      1.95948315      1.86814155
  C      0.51722652      1.29882562      3.16600088
  C     -2.34329121      3.56622565     -1.28838139
  H     -1.91818685      1.47212016     -1.26161970
  C     -0.77360026      2.36073533     -2.84872433
  H     -0.33616616      3.32673288     -3.12649193
  H     -1.56869539      2.14834734     -3.57283945
  H      0.00368964      1.59987907     -2.96448467
  H     -2.78838002      3.59379626     -0.29143155
  H     -3.14804645      3.47057440     -2.02810829
  H     -1.84126704      4.52547918     -1.46364016
  C      3.62074414      4.53833198     -0.83632408
  H      3.33710219      4.77336549      1.27625984
  C      2.06163626      6.19121225      0.29640294
  H      4.11386869      3.56280745     -0.76451444
  H      4.39743397      5.30938458     -0.90190611
  H      3.05247271      4.55886832     -1.77394897
  H      1.41511203      6.27856074     -0.58490721
  H      2.83111577      6.96891263      0.22439627
  H      1.44913641      6.39608415      1.18116720
  H     -0.18636763      0.43224806      3.32913457
  C      0.87150518      1.19137719      4.40573629
