65
 
  P      0.30015820     -3.43122070     -1.54076717
  C      1.33447157     -2.84101946     -2.95582628
  C      2.54160251     -3.53118400     -3.16078340
  H      2.80847792     -4.35091445     -2.49748592
  C      3.40361934     -3.17499607     -4.19736352
  H      4.32937479     -3.72553998     -4.34356663
  C      3.08504088     -2.10365077     -5.03451096
  H      3.76079930     -1.81704990     -5.83606429
  C      1.89853736     -1.39775274     -4.83123104
  H      1.64574687     -0.55976511     -5.47631467
  C      1.02705568     -1.76661144     -3.80406933
  H      0.10420612     -1.21929396     -3.65446775
  C     -0.82769916     -4.68037281     -2.32556887
  C     -1.49132348     -5.57098947     -1.46561107
  H     -1.32173709     -5.50769124     -0.39298107
  C     -2.35620284     -6.54401578     -1.96928407
  H     -2.86600382     -7.21906453     -1.28662766
  C     -2.54946632     -6.66123801     -3.34674855
  H     -3.21419236     -7.42437024     -3.74286470
  C     -1.87131633     -5.80239010     -4.21411591
  H     -2.00562425     -5.89681305     -5.28886226
  C     -1.01834510     -4.81974833     -3.70820589
  H     -0.48759777     -4.16668967     -4.39414659
  C     -0.85294491     -2.05463229     -1.14157269
  C     -2.10752999     -2.23519691     -0.46430805
  C     -0.54294497     -0.65541656     -1.05738088
  C     -1.58069739      0.00190455     -0.33361567
  C     -2.54788188     -0.97505335      0.03556447
 Fe     -2.37358343     -0.92068978     -2.00588276
  H     -3.47200652     -0.78241036      0.56482343
  H     -2.63327552     -3.17532481     -0.36460781
  C     -2.46368683     -0.05551602     -3.89095351
  C     -2.59919611     -1.47146734     -3.98667544
  C     -3.52011420      0.45472422     -3.06357958
  C     -4.29975124     -0.68071014     -2.65272421
  C     -3.73522597     -1.85899145     -3.22189333
  H     -5.16615236     -0.64387045     -2.00529280
  H     -1.63378114      1.05902693     -0.11553174
  H      0.34274481     -0.18235638     -1.46074395
  P     -4.09688521      2.19883024     -2.94400431
  H     -4.08064513     -2.87307270     -3.07004067
  H     -1.70053798      0.54087316     -4.37315123
  H     -1.94719122     -2.13813078     -4.53296790
  C     -2.55891342      3.22310122     -3.02537463
  C     -1.26933669      2.78605876     -2.68356695
  H     -1.12872362      1.76864991     -2.33765704
  C     -0.17298657      3.64327867     -2.79702984
  H      0.81921012      3.28627087     -2.53176641
  C     -0.34850813      4.95443985     -3.24312350
  H      0.50569657      5.62102482     -3.32818675
  C     -1.62541990      5.40245801     -3.58610351
  H     -1.77011079      6.41964319     -3.94062439
  C     -2.71807941      4.54048110     -3.48699261
  H     -3.70676193      4.88915955     -3.77631262
  C     -4.61114947      2.33128126     -1.16410705
  C     -3.81985643      2.88112275     -0.14491896
  H     -2.82981568      3.26186804     -0.37623221
  C     -4.29628015      2.95389019      1.16560670
  H     -3.66924432      3.38415582      1.94258623
  C     -5.57048569      2.47798111      1.48018810
  H     -5.93822427      2.53486084      2.50128116
  C     -6.37571338      1.94552795      0.47180779
  H     -7.37658432      1.58951539      0.70224949
  C     -5.90471229      1.88849146     -0.84062769
  H     -6.55326233      1.50556668     -1.62559695
