75
 
  P      1.05358684     -2.55380711     -0.39637782
  C      2.91593153     -2.17564937     -0.61642505
  C      3.36017301     -0.93705864     -1.42648128
  C      4.90196336     -0.82783342     -1.45144565
  H      2.99774421     -1.01707841     -2.45899129
  H      2.91187252     -0.03736963     -0.99816252
  C      5.44213579     -0.71684220     -0.01193240
  C      5.03784907     -1.97151940      0.78727730
  H      6.53654446     -0.61383694     -0.02326614
  H      5.04335307      0.18559121      0.47160507
  C      3.49962871     -2.09110834      0.82185480
  H      3.20975370     -2.98675479      1.38899047
  H      3.07217745     -1.23543701      1.35364190
  C      3.54552127     -3.44184806     -1.27484995
  C      5.49356245     -2.08130102     -2.12443175
  H      5.18677511      0.06688340     -2.02252254
  C      5.08549728     -3.33050767     -1.31982511
  H      5.12732634     -2.16155071     -3.15775252
  H      6.58876271     -2.00508772     -2.17754794
  H      5.49048185     -4.23041284     -1.80271642
  C      5.63635617     -3.22092447      0.11420718
  H      3.25493127     -4.33780403     -0.71097131
  H      3.16684149     -3.57560603     -2.29310324
  H      5.37977904     -4.12084621      0.69017779
  C      0.05371832     -2.25063913     -2.01528465
  C      0.69947034     -3.04392655     -3.18004215
  C     -0.19219620     -2.99076219     -4.44088586
  H      1.68061794     -2.62006183     -3.42379088
  H      0.86207843     -4.08777337     -2.87937370
  C     -1.56955193     -3.60787846     -4.13388492
  C     -2.23767644     -2.81348719     -2.99609963
  H     -2.19928887     -3.58605540     -5.03419011
  H     -1.45585002     -4.66160770     -3.84398078
  C     -1.34562171     -2.87486124     -1.73802450
  H     -1.83682176     -2.34571263     -0.91214228
  H     -1.22595734     -3.91852586     -1.41918075
  C     -0.15648806     -0.79056664     -2.46967890
  C     -0.37119633     -1.52287973     -4.87637312
  H      0.29786170     -3.55763057     -5.24441257
  C     -1.04169806     -0.73227418     -3.73711919
  H      0.60430083     -1.07994378     -5.12195675
  H     -0.98615814     -1.47265762     -5.78582898
  H     -1.16357495      0.31766382     -4.03814429
  C     -2.42037956     -1.34630182     -3.42916497
  H     -0.64215667     -0.22589738     -1.66780509
  H      0.80679202     -0.30881170     -2.66994146
  H     -2.91988007     -0.77670776     -2.63320375
  H     -3.06565266     -1.29059907     -4.31709319
  H     -3.21588372     -3.25497473     -2.76161883
  H      6.73323116     -3.15309714      0.09654289
  H      5.41131953     -1.88984713      1.81736315
  C      0.22841395     -1.36919689      0.82031190
  C      0.22291114      0.04389857      0.98151638
  C     -0.70038706      0.63604813      1.86179898
  H     -0.71157432      1.71961843      1.93219835
  C     -1.58371950     -0.12070769      2.62747747
  H     -2.27995773      0.37357205      3.30042025
  C     -1.54610703     -1.50836490      2.53234034
  H     -2.20703166     -2.12594195      3.13491190
  C     -0.65326960     -2.10533586      1.64470801
  H     -0.63867108     -3.18846238      1.56492041
  N      1.16075767      0.90254495      0.29182367
  C      0.57741438      1.95775997     -0.57037518
  H      0.95068374      1.85575063     -1.60081582
  H     -0.50640552      1.81979302     -0.60414663
  C      0.88583715      3.37783413     -0.06184698
  H      1.89121171      3.70513264     -0.37349836
  H      0.16766256      4.09311937     -0.47398095
  O      0.75990631      3.43914038      1.35044685
  C      1.77495807      2.67221330      1.99917537
  H      2.65035956      3.30810348      2.21331245
  H      1.34596117      2.35396335      2.95368761
  C      2.21746608      1.45566944      1.15235710
  H      3.05707613      1.74277693      0.50563494
  H      2.59023737      0.67454730      1.81839566
