83
 
  P      1.74341139     -1.22674436     -0.66429201
  C      1.10171223      0.45402644      0.02439417
  C      0.54651617      1.64889183     -0.52779002
  C      0.41707857      2.80097311      0.29935367
  C      0.75467500      2.78303967      1.64503262
  C      1.16613644      1.58850567      2.22421184
  C      1.30306017      0.44422452      1.44519522
  O     -0.09695640      3.92280138     -0.31067385
  H      0.66376409      3.66739391      2.26370574
  H      1.36969003      1.56266322      3.28737971
  O      1.63964476     -0.75727237      2.01456441
  C      1.86893529     -0.82324828      3.40855324
  H      2.72013835     -0.19889371      3.71416145
  H      2.09745445     -1.86983752      3.61885910
  H      0.98072114     -0.52555656      3.98241825
  C     -0.12873021      1.81620804     -1.87827011
  C     -1.51694727      1.50023836     -1.96247512
  C     -2.33704170      1.03842826     -0.74916945
  C     -2.19038780      1.69979018     -3.17090938
  H     -3.24338788      1.43942725     -3.23044349
  C     -1.56335199      2.23190250     -4.30020163
  C     -2.31426120      2.43323783     -5.60962416
  C     -0.23111385      2.61322156     -4.17168693
  H      0.26026881      3.07657818     -5.02373618
  C      0.49487174      2.44151022     -2.98410278
  C      1.90639927      3.02754738     -2.93251597
  C     -3.04397593      2.24714733     -0.09652136
  H     -1.64705489      0.61790691     -0.01181537
  C     -3.39230135     -0.04177022     -1.05553810
  H     -4.21571793      0.35136852     -1.66387872
  H     -3.83298952     -0.39809026     -0.11696677
  H     -2.97167331     -0.90491596     -1.57785279
  H     -2.33679065      3.03836754      0.15871432
  H     -3.56926725      1.93675662      0.81502417
  H     -3.78488428      2.67136920     -0.78517058
  C     -2.86634082      1.10739950     -6.16628136
  H     -1.59114645      2.82119921     -6.34067966
  C     -3.43378325      3.48148392     -5.46668406
  H     -2.06564619      0.37268459     -6.30571510
  H     -3.35592162      1.26580920     -7.13485195
  H     -3.60677753      0.66858278     -5.48718284
  H     -4.19720769      3.14985600     -4.75276377
  H     -3.92970865      3.65512270     -6.42943597
  H     -3.03683519      4.43811907     -5.10957319
  H      2.37894538      2.67626616     -2.01216268
  C      1.85972244      4.56969360     -2.86761811
  C      2.79514786      2.60566316     -4.11933538
  H      2.79831134      1.52386733     -4.27419615
  H      3.82868271      2.92772734     -3.94585406
  H      2.46494563      3.07330316     -5.05442821
  H      1.27315412      4.91058095     -2.01269768
  H      1.40905397      4.98455922     -3.77766929
  H      2.87494788      4.97735260     -2.78211247
  C      3.65300334     -0.83816491     -0.81294905
  C      4.24583907     -0.82840850      0.61228418
  C      4.01439813      0.49175611     -1.48412636
  H      3.63118786      0.55612427     -2.50324113
  H      3.62582748      1.34199395     -0.91681586
  C      4.33796763     -1.98967596     -1.57450892
  H      4.09475511     -1.98907783     -2.64001016
  H      4.07789079     -2.96826747     -1.15743717
  C      1.05931463     -1.74927811     -2.39656489
  C     -0.47101826     -1.73929767     -2.24945366
  C      1.46041695     -3.23936048     -2.55729293
  H      2.51692746     -3.38074646     -2.78915509
  H      1.22742821     -3.82034341     -1.65855792
  C      1.46400628     -0.98509630     -3.66455908
  H      2.54688852     -0.99466799     -3.82606249
  H      1.12659982      0.05142793     -3.63911800
  H      5.10825702      0.60110804     -1.53295593
  H      5.42704559     -1.87256748     -1.49216695
  H      0.88512840     -3.66434609     -3.39108437
  H      5.33882695     -0.73961907      0.53971608
  H      4.00952863     -1.74655750      1.15753127
  H      3.88801905      0.02139930      1.19887412
  H     -0.92815140     -2.21589659     -3.12789683
  H     -0.85364125     -0.72423276     -2.18580046
  H     -0.79069067     -2.29771191     -1.36162769
  H      1.00280199     -1.46114973     -4.54234641
  C     -0.27168834      5.09369636      0.46729932
  H     -0.69239041      5.83970714     -0.20965810
  H      0.68273074      5.46419767      0.86541859
  H     -0.96847773      4.92674858      1.29981470
