40
 
  P     -1.17645883     -2.66544012     -0.36457455
  C     -1.10788280     -0.80150744      0.20662296
  C     -2.44355749     -0.09211010      0.50433111
  C     -2.52458693     -3.56158623      0.72506406
  C     -2.27063547     -3.25724914      2.21702291
  C     -2.26296622     -5.08196221      0.57263645
  C     -1.79795595     -2.69340381     -2.21467877
  C     -0.34413602      0.02914599     -0.84841482
  C     -0.22022785     -0.76450905      1.47584832
  H     -0.91935131      0.19483256     -1.76220426
  H      0.61040041     -0.43549367     -1.11716101
  H     -0.12009169      1.01815276     -0.42620681
  H     -0.66626853     -1.27625955      2.32883123
  H     -0.05786938      0.28161132      1.77165164
  H      0.75983940     -1.21600576      1.28775161
  H     -3.11056423     -0.07690854     -0.36150405
  H     -2.24834291      0.95317795      0.78517428
  H     -2.98235376     -0.54949397      1.33796198
  H     -2.47022080     -5.45673924     -0.42963049
  H     -2.91271915     -5.63215666      1.26726353
  H     -1.22459387     -5.33203772      0.81587217
  C     -4.00783759     -3.27386471      0.42367725
  H     -4.29299565     -3.55035592     -0.59470805
  H     -4.27232864     -2.22255334      0.57130312
  H     -4.63752165     -3.86539308      1.10429924
  H     -1.22852774     -3.43874502      2.50171417
  H     -2.89596721     -3.92682578      2.82333985
  H     -2.53244935     -2.23501782      2.50011530
  C     -0.55367653     -2.40353763     -3.09061178
  C     -2.93089142     -1.72609133     -2.60939088
  C     -2.23612025     -4.12725299     -2.58489297
  H     -2.64151421     -0.67830403     -2.49658373
  H     -3.84275484     -1.88822272     -2.02837359
  H     -3.18600768     -1.87577205     -3.66861873
  H     -1.47339583     -4.86738943     -2.32017299
  H     -2.38318645     -4.18417316     -3.67209501
  H     -3.17964561     -4.41737119     -2.11750324
  H     -0.16585884     -1.39229163     -2.96463980
  H     -0.82070330     -2.52243747     -4.14987560
  H      0.25799469     -3.10451785     -2.86783815
