83
 
  P      1.11236920     -2.09646734     -0.67115058
  C      0.01609012     -0.76191835      0.09052947
  C      0.15633401     -0.77706193      1.49783138
  C     -0.46876015      0.13715337      2.33774693
  C     -1.29878483      1.11073780      1.78642523
  C     -1.51197791      1.10545046      0.41288486
  C     -0.89543769      0.18118938     -0.45646827
  H     -0.31160392      0.08196098      3.41177202
  H     -1.79458766      1.84535485      2.41514343
  H     -2.19036947      1.83313424     -0.02399594
  H      0.77951397     -1.54384417      1.95209491
  C      2.80349959     -1.37456448     -0.15369221
  H      2.63898140     -1.20993136      0.92032332
  C      3.24395709     -0.01923686     -0.73528196
  H      3.39485316     -0.10016071     -1.81901749
  H      2.45521535      0.72462734     -0.58141310
  C      4.54953290      0.47132679     -0.08289000
  H      4.86769408      1.41429317     -0.54700473
  H      4.35827378      0.69513026      0.97708436
  C      5.66672298     -0.57654314     -0.18178017
  H      5.93433831     -0.72357727     -1.23887426
  H      6.57245244     -0.21521294      0.32219828
  C      5.22073920     -1.91863131      0.41669194
  H      6.01585753     -2.66841449      0.31253225
  H      5.04837134     -1.79272461      1.49623300
  C      3.92986766     -2.42769411     -0.24682782
  H      4.14450326     -2.66827892     -1.29461123
  H      3.60237442     -3.36215637      0.22556879
  C      0.99285998     -2.00119888     -2.56148287
  H      0.73597193     -0.98396234     -2.87397333
  C     -0.13860497     -2.96107325     -2.99409989
  H      0.09905293     -3.96853255     -2.62214566
  H     -1.07785967     -2.66884108     -2.51947075
  C     -0.32419149     -3.01269258     -4.51868509
  H     -1.11592183     -3.73130563     -4.76923280
  H     -0.67012036     -2.03239712     -4.87521921
  C      0.98058756     -3.38724687     -5.23193704
  H      1.25049219     -4.42396200     -4.98007870
  H      0.84738865     -3.35503326     -6.32112076
  C      2.11924776     -2.45331309     -4.80580092
  H      3.06291441     -2.76016624     -5.27599428
  H      1.90767197     -1.43537422     -5.16564000
  C      2.29585191     -2.41776268     -3.27689921
  H      2.60343082     -3.41509940     -2.92895184
  H      3.11519405     -1.73488604     -3.03520131
  C     -1.36402328      0.28266114     -1.88987417
  C     -0.77290922      1.20745012     -2.78461531
  C      0.39824526      2.09722733     -2.37069879
  C     -1.31033708      1.35779922     -4.06775867
  H     -0.85131843      2.07152032     -4.74694303
  C     -2.42546962      0.63475689     -4.49683156
  C     -3.01165341      0.82361570     -5.89031990
  C     -3.01429720     -0.24662634     -3.58890301
  H     -3.89877051     -0.79533280     -3.90183042
  C     -2.52155552     -0.43259099     -2.29115967
  C     -3.30055860     -1.32969089     -1.32329773
  C     -0.07621927      3.53914586     -2.09867017
  C      1.55264894      2.09687062     -3.38996004
  H      0.79336433      1.70638112     -1.42892107
  H     -2.61365519     -1.64542298     -0.53063059
  C     -3.87798958     -2.60561176     -1.96336671
  C     -4.44386665     -0.53559016     -0.65372822
  C     -3.59241479      2.23929589     -6.07111832
  H     -4.06605170      0.33558489     -0.11159461
  H     -4.98407101     -1.16956933      0.06002015
  H     -5.16278897     -0.18168024     -1.40286425
  H     -2.81175048      3.00282996     -5.97043662
  H     -4.36186013      2.44982798     -5.32030461
  H     -4.04320846      2.35057953     -7.06464638
  H     -3.84241202      0.11125022     -5.98835409
  C     -1.99345152      0.50165676     -6.99948526
  H     -1.14100105      1.19068382     -6.97052509
  H     -0.50044516      3.99348805     -3.00212551
  H      0.76169146      4.16523121     -1.76826772
  H     -0.84467165      3.56566121     -1.31901188
  H      1.26010918      2.56033415     -4.33945369
  H      1.89901665      1.08076761     -3.60734452
  H      2.40285018      2.66732929     -2.99771861
  H     -4.67103963     -2.38050579     -2.68589327
  H     -4.32309284     -3.23625958     -1.18530607
  H     -3.11436638     -3.19722943     -2.47719008
  H     -1.60388480     -0.51736241     -6.89792320
  H     -2.45816783      0.59149073     -7.98870610
