36
 
 Br      4.93210439     -3.53345759      0.63417229
  C      4.72133866     -1.70376977      0.19740301
  N      5.70340936     -0.87950613      0.05755787
  C      5.23111979      0.38435108     -0.25457062
  C      3.87245800      0.50205943     -0.34924842
  S      3.12015617     -1.02351593     -0.03768008
  C      6.15941973      1.53912617     -0.46936415
  O      5.71821827      2.65024357     -0.75172404
  N      7.47401408      1.20648973     -0.32213686
  C      8.60810391      2.02544543     -0.42227973
  C      8.55977428      3.41132513     -0.62446503
  C      9.74763547      4.14065680     -0.67210823
  C     10.98208024      3.50977760     -0.52088545
  C     11.02977605      2.12673067     -0.33465477
  C      9.85716980      1.37158098     -0.28752691
  N      9.83976041     -0.05507618     -0.11855877
  C     10.69896923     -0.58285377      0.95003878
  C     10.38999085     -2.06553867      1.16111125
  N     10.62271671     -2.78223858     -0.09328776
  C      9.74770979     -2.28014318     -1.15371570
  C     10.03703549     -0.79657893     -1.37867090
  H      3.31222223      1.39669582     -0.58057482
  H      7.69623496      0.24376949     -0.07099500
  H      7.59817812      3.89379218     -0.73484969
  H      9.70044625      5.21549070     -0.82533707
  H     11.90284982      4.08524019     -0.55651194
  H     11.98794991      1.62584531     -0.22902745
  H     10.49985904     -0.01726815      1.86591440
  H     11.77085466     -0.48109449      0.70736682
  H      9.34946277     -2.15867471      1.52509294
  H     11.05769588     -2.47020601      1.93054002
  H     10.46451662     -3.77816563      0.04295539
  H      8.67323720     -2.39547077     -0.91626568
  H      9.95238747     -2.83558826     -2.07636750
  H      9.35475810     -0.38953260     -2.13189086
  H     11.06879630     -0.67566094     -1.75206534
