10
 
  C      1.17301499     -0.05497840     -0.01988318
  S      2.99647020      0.13889676      0.09989760
  C      3.39886112     -1.57784726     -0.41776692
  O      3.43013919      1.06402287     -1.01412460
  H      0.83017036     -0.81055254      0.69379358
  H      0.90261577     -0.33168505     -1.04331738
  H      0.73181928      0.91409349      0.22563095
  H      3.00313974     -2.29082746      0.31232549
  H      4.48830154     -1.65316743     -0.45579559
  H      2.98444780     -1.76686498     -1.41270994
